01
  --CCDC--072325    3D                              

 24 27  0  0  0  0  0  0  0  0999 V2000
    6.9452    2.8237   30.7323 S      0
    4.4921    6.1676   30.2060 S      0
    7.2063    3.8715   32.1060 C      0
    8.0048    3.5779   33.2054 C      0
    8.5173    2.8020   33.2127 H      0
    8.0398    4.4397   34.2914 C      0
    7.2875    5.6302   34.2116 C      0
    7.3062    6.2261   34.9254 H      0
    6.5284    5.9339   33.1105 C      0
    6.0654    6.7401   33.0809 H      0
    6.4411    5.0549   32.0390 C      0
    5.6527    5.0596   30.8525 C      0
    5.7963    3.9375   30.0759 C      0
    4.9613    3.9262   28.9117 C      0
    4.8082    2.9913   27.8891 C      0
    5.3176    2.2135   27.8886 H      0
    3.9029    3.2231   26.8825 C      0
    3.8140    2.5903   26.2067 H      0
    3.1080    4.3755   26.8340 C      0
    3.2725    5.3134   27.8402 C      0
    2.7670    6.0938   27.8279 H      0
    4.1801    5.1024   28.8636 C      0
    2.0994    4.5794   25.7393 At     0
    8.8434    4.1271   35.4956 At     0
  1  3  1
  1 13  1
  2 12  1
  2 22  1
  3  4  4
  3 11  4
  4  5  1
  4  6  4
  6  7  4
  7  8  1
  7  9  4
  9 10  1
  9 11  4
 11 12  1
 12 13  2
 13 14  1
 14 15  4
 14 22  4
 15 16  1
 15 17  4
 17 18  1
 17 19  4
 19 20  4
 20 21  1
 20 22  4
 19 23  1
  6 24  1
M  END
$$$$
