04
  --CCDC--072325    3D                              

 23 22  0  0  0  0  0  0  0  0999 V2000
    2.0994    4.5794   25.7393 C      0
    2.0538    3.7677   25.2100 H      0
    1.2283    4.7098   26.1466 H      0
    2.3621    5.7051   24.8387 C      0
    3.2444    5.5921   24.4522 H      0
    2.3736    6.5224   25.3608 H      0
    1.3577    5.8649   23.7122 C      0
    1.4143    5.0819   23.1425 H      0
    0.4680    5.8768   24.0992 H      0
    1.5022    7.0316   22.8863 C      0
    2.4047    7.0328   22.5305 H      0
    1.4188    7.8113   23.4571 H      0
    0.5588    7.2016   21.7392 C      0
    0.6201    6.4233   21.1638 H      0
   -0.3478    7.2448   22.0821 H      0
    0.8277    8.4277   20.9275 C      0
    0.7586    9.1917   21.5194 H      0
    1.7492    8.3823   20.6269 H      0
    0.0955    8.6655   19.8972 C      0
    0.3846    9.4785   19.4812 H      0
    0.1748    7.9387   19.2751 H      0
   -0.8207    8.7523   20.1721 H      0
    3.1080    4.3755   26.8340 At     0
  1  2  1
  1  3  1
  1  4  1
  4  5  1
  4  6  1
  4  7  1
  7  8  1
  7  9  1
  7 10  1
 10 11  1
 10 12  1
 10 13  1
 13 14  1
 13 15  1
 13 16  1
 16 17  1
 16 18  1
 16 19  1
 19 20  1
 19 21  1
 19 22  1
  1 23  1
M  END
$$$$
